# MODFLOW2000 Well Package
      8996        54
      8996         0               Stress Period 1
         1       167       143  22000.000
         1       167       144  22000.000
         1       167       145  22000.000
         1       167       146  22000.000
         2       167       143  3302.3799
         2       167       144  3302.3799
         2       167       145  3302.3799
         2       167       146  3302.3799
         3       167       143  19814.260
         3       167       144  19814.260
         3       167       145  19814.260
         3       167       146  19814.260
         1       134       210  0.000e+00
         1       135       210  85000.000
         1       136       210  85000.000
         1       137       210  85000.000
         1       138       210  80000.000
         1       139       210  0.000e+00
         1       140       210  0.000e+00
         1       141       210  0.000e+00
         1       142       210  0.000e+00
         1       143       210  0.000e+00
         1       144       210  0.000e+00
         1       145       210  0.000e+00
         1       146       210  0.000e+00
         1       147       210  0.000e+00
         1       136       120  4774.0000
         1       137       120  4774.0000
         1       138       120  4774.0000
         1       139       120  4774.0000
         1       140       120  4774.0000
         1       174       201  35000.000
         1       175       201  35000.000
         1       176       201  35000.000
         2       134       210  4300.0000
         2       135       210  4300.0000
         2       136       210  4300.0000
         2       137       210  4300.0000
         2       138       210  4300.0000
         2       139       210  4300.0000
         2       140       210  4300.0000
         2       141       210  4300.0000
         2       142       210  4300.0000
         2       143       210  4300.0000
         2       144       210  4300.0000
         2       145       210  4300.0000
         2       146       210  4300.0000
         2       147       210  4300.0000
         2       136       120  2387.0000
         2       137       120  2387.0000
         2       138       120  2387.0000
         2       139       120  2387.0000
         2       140       120  2387.0000
         2       174       201  70000.000
         2       175       201  60000.000
         2       176       201  60000.000
         3       134       210  5000.0000
         3       135       210  5000.0000
         3       136       210  5000.0000
         3       137       210  5000.0000
         3       138       210  5000.0000
         3       139       210  5000.0000
         3       140       210  5000.0000
         3       141       210  5000.0000
         3       142       210  5000.0000
         3       143       210  5000.0000
         3       144       210  5000.0000
         3       145       210  5000.0000
         3       146       210  5000.0000
         3       147       210  5000.0000
         3       136       120  4774.0000
         3       137       120  4774.0000
         3       138       120  4774.0000
         3       139       120  4774.0000
         3       140       120  4774.0000
         3       174       201  19148.000
         3       175       201  19148.000
         3       176       201  19148.000
         1       173       201  35000.000
         2       173       201  70000.000
         3       173       201  19148.000
         1       188       168  0.000e+00
         1       189       168  0.000e+00
         1       190       168  0.000e+00
         1       187       168  0.000e+00
         1       118       127  0.000e+00
         2       118       127  0.000e+00
         1       165       183  0.000e+00
         2       165       183  0.000e+00
         3       148       133  0.000e+00
         1       129       140  0.000e+00
         2       129       140  0.000e+00
         3       129       140  0.000e+00
         1       135       183  0.000e+00
         2       135       183  0.000e+00
         3       135       183  0.000e+00
         3       129       135  0.000e+00
         3       171       170  0.000e+00
         3       145       174  0.000e+00
         2       179       187  0.000e+00
         3       162       168  0.000e+00
         1       165       197  0.000e+00
         2       165       197  0.000e+00
         2       133       129  0.000e+00
         1       177       183  0.000e+00
         2       177       183  0.000e+00
         3       139       143  0.000e+00
         2       171       171  0.000e+00
         3       171       171  0.000e+00
         3       143       143  0.000e+00
         2       185       197  0.000e+00
         3       185       197  0.000e+00
         3       143       139  0.000e+00
         1       189       204  0.000e+00
         2       189       204  0.000e+00
         3       189       204  0.000e+00
         3       143       145  0.000e+00
         1       127       192  0.000e+00
         2       127       192  0.000e+00
         3       143       145  0.000e+00
         1       124       200  0.000e+00
         2       124       200  0.000e+00
         3       124       200  0.000e+00
         1       118       139  0.000e+00
         2       118       139  0.000e+00
         3       118       139  0.000e+00
         1       124       207  0.000e+00
         2       124       207  0.000e+00
         3       124       207  0.000e+00
         1       158       163  0.000e+00
         2       158       163  0.000e+00
         3       158       163  0.000e+00
         1       156       191  0.000e+00
         2       156       191  0.000e+00
         1       137       183  0.000e+00
         2       137       183  0.000e+00
         3       137       183  0.000e+00
         1       146       169  0.000e+00
         2       146       169  0.000e+00
         3       146       169  0.000e+00
         1       143       168  0.000e+00
         2       143       168  0.000e+00
         3       143       168  0.000e+00
         1       156       190  0.000e+00
         2       156       190  0.000e+00
         1       126       189  0.000e+00
         2       126       189  0.000e+00
         3       126       189  0.000e+00
         1       136       132  0.000e+00
         2       136       132  0.000e+00
         3       136       132  0.000e+00
         3       119       197  0.000e+00
         1       149       179  0.000e+00
         2       149       179  0.000e+00
         3       149       179  0.000e+00
         1       122       205  0.000e+00
         2       122       205  0.000e+00
         1       131       187  0.000e+00
         2       131       187  0.000e+00
         3       131       187  0.000e+00
         2       121       197  0.000e+00
         3       121       197  0.000e+00
         1       146       173  0.000e+00
         2       146       173  0.000e+00
         3       146       173  0.000e+00
         1       148       173  0.000e+00
         2       148       173  0.000e+00
         3       148       173  0.000e+00
         1       131       180  0.000e+00
         2       131       180  0.000e+00
         3       131       180  0.000e+00
         3       124       207  0.000e+00
         1       160       191  0.000e+00
         2       160       191  0.000e+00
         1       155       191  0.000e+00
         2       155       191  0.000e+00
         3       120       198  0.000e+00
         1       166       189  0.000e+00
         2       166       189  0.000e+00
         1       141       194  0.000e+00
         2       141       194  0.000e+00
         1       141       194  0.000e+00
         2       141       194  0.000e+00
         3       144       131  0.000e+00
         1       140       193  0.000e+00
         2       140       193  0.000e+00
         1       141       194  0.000e+00
         2       141       194  0.000e+00
         1       122       209  0.000e+00
         2       122       209  0.000e+00
         3       122       209  0.000e+00
         2       119       214  0.000e+00
         3       119       214  0.000e+00
         3       123       138  0.000e+00
         1       190       208  0.000e+00
         2       190       208  0.000e+00
         3       190       208  0.000e+00
         3       130       209  0.000e+00
         1       141       198  0.000e+00
         2       141       198  0.000e+00
         3       145       132  0.000e+00
         1       139       184  0.000e+00
         2       139       184  0.000e+00
         3       122       202  0.000e+00
         3       122       138  0.000e+00
         3       122       201  0.000e+00
         2       142       175  0.000e+00
         3       142       175  0.000e+00
         3       137       124  0.000e+00
         3       160       171  0.000e+00
         1       138       191  0.000e+00
         2       138       191  0.000e+00
         1       129       195  0.000e+00
         2       129       195  0.000e+00
         1       183       181  0.000e+00
         2       183       181  0.000e+00
         3       183       181  0.000e+00
         2       183       181  0.000e+00
         3       183       181  0.000e+00
         1       146       184  0.000e+00
         2       146       184  0.000e+00
         1       147       167  0.000e+00
         2       147       167  0.000e+00
         3       147       167  0.000e+00
         2       186       185  0.000e+00
         3       186       185  0.000e+00
         2       137       143  0.000e+00
         3       137       143  0.000e+00
         3       137       145  0.000e+00
         3       130       124  0.000e+00
         1       178       185  0.000e+00
         2       178       185  0.000e+00
         1       168       194  0.000e+00
         2       168       194  0.000e+00
         1       128       203  0.000e+00
         2       128       203  0.000e+00
         3       128       203  0.000e+00
         2       140       172  0.000e+00
         3       140       172  0.000e+00
         1       147       191  0.000e+00
         2       147       191  0.000e+00
         1       146       168  0.000e+00
         2       146       168  0.000e+00
         3       146       168  0.000e+00
         1       174       178  0.000e+00
         2       174       178  0.000e+00
         3       174       178  0.000e+00
         2       183       180  0.000e+00
         3       183       180  0.000e+00
         1       141       174  0.000e+00
         3       125       212  0.000e+00
         3       143       149  0.000e+00
         1       144       168  0.000e+00
         2       144       168  0.000e+00
         3       144       168  0.000e+00
         3       142       147  0.000e+00
         1       122       201  0.000e+00
         2       122       201  0.000e+00
         3       122       201  0.000e+00
         1       119       128  0.000e+00
         2       119       128  0.000e+00
         1       120       129  0.000e+00
         2       141       174  0.000e+00
         3       141       174  0.000e+00
         1       142       174  0.000e+00
         2       142       174  0.000e+00
         3       142       174  0.000e+00
         1       142       179  0.000e+00
         2       142       179  0.000e+00
         1       123       138  0.000e+00
         2       123       138  0.000e+00
         3       123       138  0.000e+00
         2       155       203  0.000e+00
         1       141       175  0.000e+00
         2       141       175  0.000e+00
         3       141       175  0.000e+00
         1       152       165  0.000e+00
         2       152       165  0.000e+00
         3       152       165  0.000e+00
         1       164       174  0.000e+00
         2       164       174  0.000e+00
         3       164       174  0.000e+00
         1       146       193  0.000e+00
         2       146       193  0.000e+00
         1       117       124  0.000e+00
         2       117       124  0.000e+00
         1       128       136  0.000e+00
         2       128       136  0.000e+00
         3       152       165  0.000e+00
         1       148       158  0.000e+00
         2       148       158  0.000e+00
         3       148       158  0.000e+00
         1       142       174  0.000e+00
         2       142       174  0.000e+00
         3       142       174  0.000e+00
         1       154       174  0.000e+00
         2       154       174  0.000e+00
         3       144       168  0.000e+00
         1       140       193  0.000e+00
         2       140       193  0.000e+00
         1       140       192  0.000e+00
         2       140       192  0.000e+00
         3       142       149  0.000e+00
         1       154       174  0.000e+00
         2       154       174  0.000e+00
         1       126       209  0.000e+00
         2       126       209  0.000e+00
         3       126       209  0.000e+00
         1       126       208  0.000e+00
         2       126       208  0.000e+00
         3       126       208  0.000e+00
         3       142       149  0.000e+00
         3       142       149  0.000e+00
         3       142       149  0.000e+00
         1       121       130  0.000e+00
         2       121       130  0.000e+00
         3       142       149  0.000e+00
         3       142       149  0.000e+00
         2       145       138  0.000e+00
         3       145       138  0.000e+00
         2       118       120  0.000e+00
         3       118       120  0.000e+00
         3       142       148  0.000e+00
         2       137       137  0.000e+00
         3       137       137  0.000e+00
         2       142       175  0.000e+00
         3       142       175  0.000e+00
         3       146       168  0.000e+00
         1       122       201  0.000e+00
         2       122       201  0.000e+00
         3       122       201  0.000e+00
         1       123       201  0.000e+00
         2       123       201  0.000e+00
         3       123       201  0.000e+00
         1       122       201  0.000e+00
         2       122       201  0.000e+00
         3       122       201  0.000e+00
         1       122       202  0.000e+00
         2       122       202  0.000e+00
         3       122       202  0.000e+00
         1       123       202  0.000e+00
         2       123       202  0.000e+00
         3       123       202  0.000e+00
         1       155       191  0.000e+00
         2       155       191  0.000e+00
         1       155       191  0.000e+00
         2       155       191  0.000e+00
         3       144       168  0.000e+00
         1       129       183  0.000e+00
         2       129       183  0.000e+00
         3       129       183  0.000e+00
         1       123       202  0.000e+00
         2       123       202  0.000e+00
         1       125       212  0.000e+00
         2       125       212  0.000e+00
         2       120       129  0.000e+00
         1       152       180  0.000e+00
         2       152       180  0.000e+00
         3       152       180  0.000e+00
         1       152       180  0.000e+00
         2       152       180  0.000e+00
         3       152       180  0.000e+00
         3       134       126  0.000e+00
         1       168       194  0.000e+00
         2       168       194  0.000e+00
         1       138       177  0.000e+00
         2       138       177  0.000e+00
         3       138       177  0.000e+00
         2       123       195  0.000e+00
         3       123       195  0.000e+00
         1       162       171  0.000e+00
         2       162       171  0.000e+00
         3       162       171  0.000e+00
         1       129       182  0.000e+00
         2       129       182  0.000e+00
         3       129       182  0.000e+00
         1       125       198  0.000e+00
         2       125       198  0.000e+00
         1       168       198  0.000e+00
         2       168       198  0.000e+00
         1       141       178  0.000e+00
         2       141       178  0.000e+00
         3       141       178  0.000e+00
         1       168       198  0.000e+00
         2       168       198  0.000e+00
         3       127       144  0.000e+00
         3       147       148  0.000e+00
         1       139       183  0.000e+00
         2       139       183  0.000e+00
         2       122       195  0.000e+00
         3       122       195  0.000e+00
         2       139       139  0.000e+00
         3       139       139  0.000e+00
         1       142       179  0.000e+00
         2       142       179  0.000e+00
         3       131       123  0.000e+00
         1       149       183  0.000e+00
         2       149       183  0.000e+00
         1       164       186  0.000e+00
         2       164       186  0.000e+00
         1       128       138  0.000e+00
         2       128       138  0.000e+00
         3       128       138  0.000e+00
         1       125       194  0.000e+00
         2       125       194  0.000e+00
         3       125       194  0.000e+00
         3       144       134  0.000e+00
         1       129       182  0.000e+00
         2       129       182  0.000e+00
         3       129       182  0.000e+00
         1       118       126  0.000e+00
         2       118       126  0.000e+00
         2       157       187  0.000e+00
         1       126       204  0.000e+00
         2       126       204  0.000e+00
         3       126       204  0.000e+00
         1       127       202  0.000e+00
         2       127       202  0.000e+00
         3       127       202  0.000e+00
         3       145       150  0.000e+00
         3       145       152  0.000e+00
         3       144       151  0.000e+00
         1       146       173  0.000e+00
         2       146       173  0.000e+00
         3       146       173  0.000e+00
         1       148       169  0.000e+00
         2       148       169  0.000e+00
         1       146       172  0.000e+00
         2       146       172  0.000e+00
         3       146       172  0.000e+00
         1       125       199  0.000e+00
         2       125       199  0.000e+00
         3       125       199  0.000e+00
         1       148       184  0.000e+00
         2       148       184  0.000e+00
         3       123       197  0.000e+00
         1       125       198  0.000e+00
         2       125       198  0.000e+00
         3       125       198  0.000e+00
         1       123       197  0.000e+00
         2       123       197  0.000e+00
         3       123       197  0.000e+00
         3       130       143  0.000e+00
         3       129       144  0.000e+00
         2       130       197  0.000e+00
         3       130       197  0.000e+00
         2       130       197  0.000e+00
         3       130       197  0.000e+00
         1       130       195  0.000e+00
         2       130       195  0.000e+00
         1       130       197  0.000e+00
         2       130       197  0.000e+00
         1       147       164  0.000e+00
         2       147       164  0.000e+00
         1       149       169  0.000e+00
         1        89       133  0.000e+00
         2        89       133  0.000e+00
         3        89       133  0.000e+00
         1        89       136  0.000e+00
         2        89       136  0.000e+00
         3        89       136  0.000e+00
         1       152       191  0.000e+00
         2       152       191  0.000e+00
         1       174       178  0.000e+00
         2       174       178  0.000e+00
         3       174       178  0.000e+00
         1       175       179  0.000e+00
         2       175       179  0.000e+00
         1       177       183  0.000e+00
         2       177       183  0.000e+00
         1       178       183  0.000e+00
         2       178       183  0.000e+00
         1       178       184  0.000e+00
         2       178       184  0.000e+00
         1       177       185  0.000e+00
         2       177       185  0.000e+00
         2       177       185  0.000e+00
         1       178       185  0.000e+00
         2       178       185  0.000e+00
         2       183       178  0.000e+00
         3       183       178  0.000e+00
         1       183       177  0.000e+00
         2       183       177  0.000e+00
         2       182       178  0.000e+00
         3       182       178  0.000e+00
         1       158       186  0.000e+00
         2       158       186  0.000e+00
         1       157       186  0.000e+00
         2       157       186  0.000e+00
         2       177       185  0.000e+00
         1       147       157  0.000e+00
         2       147       157  0.000e+00
         3       147       157  0.000e+00
         1       148       158  0.000e+00
         2       148       158  0.000e+00
         1       147       157  0.000e+00
         2       147       157  0.000e+00
         1       134       177  0.000e+00
         2       134       177  0.000e+00
         3       134       177  0.000e+00
         2       141       167  0.000e+00
         3       141       167  0.000e+00
         1       142       165  0.000e+00
         2       142       165  0.000e+00
         3       142       165  0.000e+00
         1       142       167  0.000e+00
         2       142       167  0.000e+00
         3       142       167  0.000e+00
         1       142       169  0.000e+00
         2       142       169  0.000e+00
         3       142       169  0.000e+00
         1       166       191  0.000e+00
         2       166       191  0.000e+00
         3       141       169  0.000e+00
         1       153       173  0.000e+00
         2       153       173  0.000e+00
         3       153       173  0.000e+00
         1       158       187  0.000e+00
         2       158       187  0.000e+00
         1       157       187  0.000e+00
         3       148       169  0.000e+00
         1       148       169  0.000e+00
         2       148       169  0.000e+00
         3       148       169  0.000e+00
         3       145       172  0.000e+00
         1       146       172  0.000e+00
         2       146       172  0.000e+00
         3       146       172  0.000e+00
         1       131       189  0.000e+00
         2       131       189  0.000e+00
         3       131       189  0.000e+00
         1       131       190  0.000e+00
         2       131       190  0.000e+00
         1       131       189  0.000e+00
         2       131       189  0.000e+00
         2       122       130  0.000e+00
         2       178       189  0.000e+00
         3       178       189  0.000e+00
         1       177       188  0.000e+00
         2       177       188  0.000e+00
         2       178       189  0.000e+00
         1       177       189  0.000e+00
         2       177       189  0.000e+00
         1       176       188  0.000e+00
         2       176       188  0.000e+00
         1       175       188  0.000e+00
         2       175       188  0.000e+00
         1       176       187  0.000e+00
         2       176       187  0.000e+00
         1       175       187  0.000e+00
         2       175       187  0.000e+00
         1       174       188  0.000e+00
         2       174       188  0.000e+00
         1       174       187  0.000e+00
         2       174       187  0.000e+00
         1       173       187  0.000e+00
         2       173       187  0.000e+00
         1       174       186  0.000e+00
         2       174       186  0.000e+00
         1       174       185  0.000e+00
         2       174       185  0.000e+00
         1       172       186  0.000e+00
         2       172       186  0.000e+00
         1       172       184  0.000e+00
         2       172       184  0.000e+00
         2       171       185  0.000e+00
         1       171       183  0.000e+00
         2       171       183  0.000e+00
         2       171       183  0.000e+00
         2       172       181  0.000e+00
         1       170       181  0.000e+00
         2       170       181  0.000e+00
         1       169       181  0.000e+00
         2       169       181  0.000e+00
         2       162       168  0.000e+00
         3       162       168  0.000e+00
         3       144       137  0.000e+00
         1       145       137  0.000e+00
         2       145       137  0.000e+00
         3       145       137  0.000e+00
         3       145       137  0.000e+00
         3       145       137  0.000e+00
         3       126       183  0.000e+00
         2       150       181  0.000e+00
         3       150       181  0.000e+00
         1       150       177  0.000e+00
         2       150       177  0.000e+00
         3       150       177  0.000e+00
         1       150       178  0.000e+00
         2       150       178  0.000e+00
         3       150       178  0.000e+00
         1       149       179  0.000e+00
         1       170       179  0.000e+00
         2       170       179  0.000e+00
         1       172       177  0.000e+00
         2       172       177  0.000e+00
         1       168       179  0.000e+00
         2       168       179  0.000e+00
         1       168       178  0.000e+00
         2       168       178  0.000e+00
         1       168       181  0.000e+00
         2       168       181  0.000e+00
         1       168       181  0.000e+00
         2       168       181  0.000e+00
         1       134       167  0.000e+00
         2       134       167  0.000e+00
         3       134       167  0.000e+00
         2       138       167  0.000e+00
         3       138       167  0.000e+00
         3       134       167  0.000e+00
         2       138       178  0.000e+00
         3       138       178  0.000e+00
         1       138       178  0.000e+00
         2       138       178  0.000e+00
         1       138       179  0.000e+00
         2       138       179  0.000e+00
         1       145       138  0.000e+00
         2       145       138  0.000e+00
         3       145       138  0.000e+00
         1       144       139  0.000e+00
         2       144       139  0.000e+00
         3       144       139  0.000e+00
         2       140       163  0.000e+00
         3       140       163  0.000e+00
         1       137       199  0.000e+00
         2       137       199  0.000e+00
         1       136       200  0.000e+00
         2       136       200  0.000e+00
         1       147       190  0.000e+00
         2       147       190  0.000e+00
         1       139       185  0.000e+00
         2       139       185  0.000e+00
         1       138       185  0.000e+00
         1       160       187  0.000e+00
         2       160       187  0.000e+00
         1       160       186  0.000e+00
         2       160       186  0.000e+00
         1       149       159  0.000e+00
         2       149       159  0.000e+00
         3       149       159  0.000e+00
         1       149       158  0.000e+00
         2       149       158  0.000e+00
         3       149       158  0.000e+00
         1       149       158  0.000e+00
         2       149       158  0.000e+00
         3       149       158  0.000e+00
         1       125       197  0.000e+00
         2       125       197  0.000e+00
         3       125       197  0.000e+00
         2       161       171  0.000e+00
         3       161       171  0.000e+00
         2       161       171  0.000e+00
         3       161       171  0.000e+00
         2       161       170  0.000e+00
         3       161       170  0.000e+00
         2       162       168  0.000e+00
         3       162       168  0.000e+00
         1       162       169  0.000e+00
         2       162       169  0.000e+00
         3       162       169  0.000e+00
         3       161       168  0.000e+00
         2       149       179  0.000e+00
         3       149       179  0.000e+00
         3       149       179  0.000e+00
         1       147       179  0.000e+00
         2       147       179  0.000e+00
         3       147       179  0.000e+00
         1       146       179  0.000e+00
         2       146       179  0.000e+00
         1       148       180  0.000e+00
         2       148       180  0.000e+00
         1       148       180  0.000e+00
         2       148       180  0.000e+00
         1       148       180  0.000e+00
         2       148       180  0.000e+00
         1       150       181  0.000e+00
         2       150       181  0.000e+00
         1       149       181  0.000e+00
         2       149       181  0.000e+00
         2       139       139  0.000e+00
         3       139       139  0.000e+00
         2       139       138  0.000e+00
         3       139       138  0.000e+00
         1       143       167  0.000e+00
         2       143       167  0.000e+00
         3       143       167  0.000e+00
         1       143       167  0.000e+00
         2       143       167  0.000e+00
         2       142       182  0.000e+00
         1       142       160  0.000e+00
         2       142       160  0.000e+00
         3       142       160  0.000e+00
         1       142       160  0.000e+00
         2       142       160  0.000e+00
         1       144       182  0.000e+00